      142 'GENROU' 1,	8.0000,	3.00000e-02,	0.40000,	5.00000e-02
       6.5000,	0.0000,	1.8000,	1.7000,	0.30000
       0.55000,	0.25000,	6.00000e-02,	0.0000,	1.0000	/
      142 'EXDC2' 1,	2.00000e-02,	20.000,	2.00000e-02,	1.0000
       1.0000,	7.3000,	-7.3000,	1.0000,	0.83000
       0.0754,	1.2460,	0.0000,	0.0000,	0.0000
       1.0000,	1.0000	/
      142 'TGOV1' 1,	5.00000e-02,	0.10000,	1.200,	0.00000
       0.2000,	10.0000,	0.0000	/
   Line 'Toggle' Line_8     2.0  /
