0,   100.00,  32, 0, 1, 60.00     / PSS(R)E 32 RAW created by rawd32  THU, JAN 30 2020  10:51
MODIFIED KUNDUR'S TWO-AREA TEST SYSTEM, DISTRIBUTED WITH ANDES
SEE THE BOOK "POWER SYSTEM STABILITY AND CONTROL" FOR ORIGINAL DATA
     1,	'Bus 1',	10.0000,	1,	1,	1,	1,	1.00000,	0.0000
     2,	'Bus 2',	10.0000,	1,	1,	1,	1,	1.00000,	0.0000
     3,	'Bus 3',	10.0000,	1,	1,	1,	1,	1.00000,	0.0000
     4,	'Bus 4',	10.0000,	1,	1,	1,	1,	1.00000,	0.0000
     5,	'Bus 5',	10.0000,	1,	1,	1,	1,	1.00000,	0.0000
     6,	'Bus 6',	10.0000,	1,	1,	1,	1,	1.00000,	0.0000
     7,	'Bus 7',	10.0000,	1,	1,	1,	1,	1.00000,	0.0000
     8,	'Bus 8',	10.0000,	1,	1,	1,	1,	1.00000,	0.0000
     9,	'Bus 9',	10.0000,	1,	1,	1,	1,	1.00000,	0.0000
    10,	'Bus 10',	10.0000,	1,	1,	1,	1,	1.00000,	0.0000
    11,	'Bus 11',	10.0000,	1,	1,	1,	1,	1.00000,	0.0000
    12,	'Bus 12',	10.0000,	1,	1,	1,	1,	1.00000,	0.0000
    13,	'Bus 13',	10.0000,	1,	1,	1,	1,	1.00000,	0.0000
    14,	'Bus 14',	10.0000,	1,	1,	1,	1,	1.00000,	0.0000
    15,	'Bus 15',	10.0000,	1,	1,	1,	1,	1.00000,	0.0000
    16,	'Bus 16',	10.0000,	1,	1,	1,	1,	1.00000,	0.0000
    17,	'Bus 17',	10.0000,	1,	1,	1,	1,	1.00000,	0.0000
    18,	'Bus 18',	10.0000,	1,	1,	1,	1,	1.00000,	0.0000
    19,	'Bus 19',	10.0000,	1,	1,	1,	1,	1.00000,	0.0000
    20,	'Bus 20',	10.0000,	1,	1,	1,	1,	1.00000,	0.0000
    21,	'Bus 21',	10.0000,	1,	1,	1,	1,	1.00000,	0.0000
    22,	'Bus 22',	10.0000,	1,	1,	1,	1,	1.00000,	0.0000
    23,	'Bus 23',	10.0000,	1,	1,	1,	1,	1.00000,	0.0000
    24,	'Bus 24',	10.0000,	1,	1,	1,	1,	1.00000,	0.0000
    25,	'Bus 25',	10.0000,	1,	1,	1,	1,	1.00000,	0.0000
    26,	'Bus 26',	10.0000,	1,	1,	1,	1,	1.00000,	0.0000
    27,	'Bus 27',	10.0000,	1,	1,	1,	1,	1.00000,	0.0000
    28,	'Bus 28',	10.0000,	1,	1,	1,	1,	1.00000,	0.0000
    29,	'Bus 29',	10.0000,	1,	1,	1,	1,	1.00000,	0.0000
    30,	'Bus 30',	10.0000,	1,	1,	1,	1,	1.00000,	0.0000
    31,	'Bus 31',	10.0000,	1,	1,	1,	1,	1.00000,	0.0000
    32,	'Bus 32',	10.0000,	1,	1,	1,	1,	1.00000,	0.0000
    33,	'Bus 33',	10.0000,	1,	1,	1,	1,	1.00000,	0.0000
    34,	'Bus 34',	10.0000,	1,	1,	1,	1,	1.00000,	0.0000
    35,	'Bus 35',	10.0000,	1,	1,	1,	1,	1.00000,	0.0000
    36,	'Bus 36',	10.0000,	1,	1,	1,	1,	1.00000,	0.0000
    37,	'Bus 37',	10.0000,	1,	1,	1,	1,	1.00000,	0.0000
    38,	'Bus 38',	10.0000,	1,	1,	1,	1,	1.00000,	0.0000
    39,	'Bus 39',	10.0000,	2,	1,	1,	1,	1.00000,	0.0000
    40,	'Bus 40',	10.0000,	1,	1,	1,	1,	1.00000,	0.0000
    41,	'Bus 41',	10.0000,	1,	1,	1,	1,	1.00000,	0.0000
    42,	'Bus 42',	10.0000,	1,	1,	1,	1,	1.00000,	0.0000
    43,	'Bus 43',	10.0000,	1,	1,	1,	1,	1.00000,	0.0000
    44,	'Bus 44',	10.0000,	1,	1,	1,	1,	1.00000,	0.0000
    45,	'Bus 45',	10.0000,	1,	1,	1,	1,	1.00000,	0.0000
    46,	'Bus 46',	10.0000,	1,	1,	1,	1,	1.00000,	0.0000
    47,	'Bus 47',	10.0000,	1,	1,	1,	1,	1.00000,	0.0000
    48,	'Bus 48',	10.0000,	1,	1,	1,	1,	1.00000,	0.0000
    49,	'Bus 49',	10.0000,	1,	1,	1,	1,	1.00000,	0.0000
    50,	'Bus 50',	10.0000,	1,	1,	1,	1,	1.00000,	0.0000
    51,	'Bus 51',	10.0000,	1,	1,	1,	1,	1.00000,	0.0000
    52,	'Bus 52',	10.0000,	1,	1,	1,	1,	1.00000,	0.0000
    53,	'Bus 53',	10.0000,	1,	1,	1,	1,	1.00000,	0.0000
    54,	'Bus 54',	10.0000,	1,	1,	1,	1,	1.00000,	0.0000
    55,	'Bus 55',	10.0000,	1,	1,	1,	1,	1.00000,	0.0000
    56,	'Bus 56',	10.0000,	1,	1,	1,	1,	1.00000,	0.0000
    57,	'Bus 57',	10.0000,	1,	1,	1,	1,	1.00000,	0.0000
    58,	'Bus 58',	10.0000,	1,	1,	1,	1,	1.00000,	0.0000
    59,	'Bus 59',	10.0000,	1,	1,	1,	1,	1.00000,	0.0000
    60,	'Bus 60',	10.0000,	1,	1,	1,	1,	1.00000,	0.0000
    61,	'Bus 61',	10.0000,	1,	1,	1,	1,	1.00000,	0.0000
    62,	'Bus 62',	10.0000,	1,	1,	1,	1,	1.00000,	0.0000
    63,	'Bus 63',	10.0000,	1,	1,	1,	1,	1.00000,	0.0000
    64,	'Bus 64',	10.0000,	1,	1,	1,	1,	1.00000,	0.0000
    65,	'Bus 65',	10.0000,	1,	1,	1,	1,	1.00000,	0.0000
    66,	'Bus 66',	10.0000,	1,	1,	1,	1,	1.00000,	0.0000
    67,	'Bus 67',	10.0000,	1,	1,	1,	1,	1.00000,	0.0000
    68,	'Bus 68',	10.0000,	1,	1,	1,	1,	1.00000,	0.0000
    69,	'Bus 69',	10.0000,	1,	1,	1,	1,	1.00000,	0.0000
    70,	'Bus 70',	10.0000,	1,	1,	1,	1,	1.00000,	0.0000
    71,	'Bus 71',	10.0000,	1,	1,	1,	1,	1.00000,	0.0000
    72,	'Bus 72',	10.0000,	1,	1,	1,	1,	1.00000,	0.0000
    73,	'Bus 73',	10.0000,	1,	1,	1,	1,	1.00000,	0.0000
    74,	'Bus 74',	10.0000,	1,	1,	1,	1,	1.00000,	0.0000
    75,	'Bus 75',	10.0000,	1,	1,	1,	1,	1.00000,	0.0000
    76,	'Bus 76',	10.0000,	1,	1,	1,	1,	1.00000,	0.0000
    77,	'Bus 77',	10.0000,	1,	1,	1,	1,	1.00000,	0.0000
    78,	'Bus 78',	10.0000,	1,	1,	1,	1,	1.00000,	0.0000
    79,	'Bus 79',	10.0000,	1,	1,	1,	1,	1.00000,	0.0000
    80,	'Bus 80',	10.0000,	1,	1,	1,	1,	1.00000,	0.0000
    81,	'Bus 81',	10.0000,	2,	1,	1,	1,	1.00000,	0.0000
    82,	'Bus 82',	10.0000,	1,	1,	1,	1,	1.00000,	0.0000
    83,	'Bus 83',	10.0000,	1,	1,	1,	1,	1.00000,	0.0000
    84,	'Bus 84',	10.0000,	1,	1,	1,	1,	1.00000,	0.0000
    85,	'Bus 85',	10.0000,	1,	1,	1,	1,	1.00000,	0.0000
    86,	'Bus 86',	10.0000,	1,	1,	1,	1,	1.00000,	0.0000
    87,	'Bus 87',	10.0000,	1,	1,	1,	1,	1.00000,	0.0000
    88,	'Bus 88',	10.0000,	1,	1,	1,	1,	1.00000,	0.0000
    89,	'Bus 89',	10.0000,	1,	1,	1,	1,	1.00000,	0.0000
    90,	'Bus 90',	10.0000,	1,	1,	1,	1,	1.00000,	0.0000
    91,	'Bus 91',	10.0000,	1,	1,	1,	1,	1.00000,	0.0000
    92,	'Bus 92',	10.0000,	1,	1,	1,	1,	1.00000,	0.0000
    93,	'Bus 93',	10.0000,	1,	1,	1,	1,	1.00000,	0.0000
    94,	'Bus 94',	10.0000,	1,	1,	1,	1,	1.00000,	0.0000
    95,	'Bus 95',	10.0000,	1,	1,	1,	1,	1.00000,	0.0000
    96,	'Bus 96',	10.0000,	1,	1,	1,	1,	1.00000,	0.0000
    97,	'Bus 97',	10.0000,	1,	1,	1,	1,	1.00000,	0.0000
    98,	'Bus 98',	10.0000,	1,	1,	1,	1,	1.00000,	0.0000
    99,	'Bus 99',	10.0000,	1,	1,	1,	1,	1.00000,	0.0000
    100,	'Bus 100',	10.0000,	1,	1,	1,	1,	1.00000,	0.0000
    101,	'Bus 101',	10.0000,	1,	1,	1,	1,	1.00000,	0.0000
    102,	'Bus 102',	10.0000,	1,	1,	1,	1,	1.00000,	0.0000
    103,	'Bus 103',	10.0000,	1,	1,	1,	1,	1.00000,	0.0000
    104,	'Bus 104',	10.0000,	1,	1,	1,	1,	1.00000,	0.0000
    105,	'Bus 105',	10.0000,	1,	1,	1,	1,	1.00000,	0.0000
    106,	'Bus 106',	10.0000,	1,	1,	1,	1,	1.00000,	0.0000
    107,	'Bus 107',	10.0000,	1,	1,	1,	1,	1.00000,	0.0000
    108,	'Bus 108',	10.0000,	1,	1,	1,	1,	1.00000,	0.0000
    109,	'Bus 109',	10.0000,	1,	1,	1,	1,	1.00000,	0.0000
    110,	'Bus 110',	10.0000,	1,	1,	1,	1,	1.00000,	0.0000
    111,	'Bus 111',	10.0000,	1,	1,	1,	1,	1.00000,	0.0000
    112,	'Bus 112',	10.0000,	1,	1,	1,	1,	1.00000,	0.0000
    113,	'Bus 113',	10.0000,	1,	1,	1,	1,	1.00000,	0.0000
    114,	'Bus 114',	10.0000,	1,	1,	1,	1,	1.00000,	0.0000
    115,	'Bus 115',	10.0000,	1,	1,	1,	1,	1.00000,	0.0000
    116,	'Bus 116',	10.0000,	1,	1,	1,	1,	1.00000,	0.0000
    117,	'Bus 117',	10.0000,	1,	1,	1,	1,	1.00000,	0.0000
    118,	'Bus 118',	10.0000,	1,	1,	1,	1,	1.00000,	0.0000
    119,	'Bus 119',	10.0000,	1,	1,	1,	1,	1.00000,	0.0000
    120,	'Bus 120',	10.0000,	1,	1,	1,	1,	1.00000,	0.0000
    121,	'Bus 121',	10.0000,	1,	1,	1,	1,	1.00000,	0.0000
    122,	'Bus 122',	10.0000,	1,	1,	1,	1,	1.00000,	0.0000
    123,	'Bus 123',	10.0000,	1,	1,	1,	1,	1.00000,	0.0000
    124,	'Bus 124',	10.0000,	1,	1,	1,	1,	1.00000,	0.0000
    125,	'Bus 125',	10.0000,	1,	1,	1,	1,	1.00000,	0.0000
    126,	'Bus 126',	10.0000,	1,	1,	1,	1,	1.00000,	0.0000
    127,	'Bus 127',	10.0000,	1,	1,	1,	1,	1.00000,	0.0000
    128,	'Bus 128',	10.0000,	1,	1,	1,	1,	1.00000,	0.0000
    129,	'Bus 129',	10.0000,	1,	1,	1,	1,	1.00000,	0.0000
    130,	'Bus 130',	10.0000,	1,	1,	1,	1,	1.00000,	0.0000
    131,	'Bus 131',	10.0000,	1,	1,	1,	1,	1.00000,	0.0000
    132,	'Bus 132',	10.0000,	1,	1,	1,	1,	1.00000,	0.0000
    133,	'Bus 133',	10.0000,	1,	1,	1,	1,	1.00000,	0.0000
    134,	'Bus 134',	10.0000,	1,	1,	1,	1,	1.00000,	0.0000
    135,	'Bus 135',	10.0000,	1,	1,	1,	1,	1.00000,	0.0000
    136,	'Bus 136',	10.0000,	1,	1,	1,	1,	1.00000,	0.0000
    137,	'Bus 137',	10.0000,	1,	1,	1,	1,	1.00000,	0.0000
    138,	'Bus 138',	10.0000,	1,	1,	1,	1,	1.00000,	0.0000
    139,	'Bus 139',	10.0000,	1,	1,	1,	1,	1.00000,	0.0000
    140,	'Bus 140',	10.0000,	1,	1,	1,	1,	1.00000,	0.0000
    141,	'Bus 141',	10.0000,	1,	1,	1,	1,	1.00000,	0.0000
    142,	'Bus 142',	10.0000,	3,	1,	1,	1,	1.00000,	0.0000
    143,	'Bus 143',	10.0000,	1,	1,	1,	1,	1.00000,	0.0000
    144,	'Bus 144',	10.0000,	1,	1,	1,	1,	1.00000,	0.0000
    145,	'Bus 145',	10.0000,	1,	1,	1,	1,	1.00000,	0.0000
    146,	'Bus 146',	10.0000,	1,	1,	1,	1,	1.00000,	0.0000
    147,	'Bus 147',	10.0000,	1,	1,	1,	1,	1.00000,	0.0000
    148,	'Bus 148',	10.0000,	1,	1,	1,	1,	1.00000,	0.0000
    149,	'Bus 149',	10.0000,	1,	1,	1,	1,	1.00000,	0.0000
    150,	'Bus 150',	10.0000,	1,	1,	1,	1,	1.00000,	0.0000
    151,	'Bus 151',	10.0000,	1,	1,	1,	1,	1.00000,	0.0000
    152,	'Bus 152',	10.0000,	2,	1,	1,	1,	1.00000,	0.0000
    153,	'Bus 153',	10.0000,	1,	1,	1,	1,	1.00000,	0.0000
    154,	'Bus 154',	10.0000,	1,	1,	1,	1,	1.00000,	0.0000
    155,	'Bus 155',	10.0000,	1,	1,	1,	1,	1.00000,	0.0000
    156,	'Bus 156',	10.0000,	1,	1,	1,	1,	1.00000,	0.0000
    157,	'Bus 157',	10.0000,	1,	1,	1,	1,	1.00000,	0.0000
    158,	'Bus 158',	10.0000,	1,	1,	1,	1,	1.00000,	0.0000
    159,	'Bus 159',	10.0000,	1,	1,	1,	1,	1.00000,	0.0000
    160,	'Bus 160',	10.0000,	1,	1,	1,	1,	1.00000,	0.0000
    161,	'Bus 161',	10.0000,	1,	1,	1,	1,	1.00000,	0.0000
    162,	'Bus 162',	10.0000,	1,	1,	1,	1,	1.00000,	0.0000
    163,	'Bus 163',	10.0000,	1,	1,	1,	1,	1.00000,	0.0000
    164,	'Bus 164',	10.0000,	1,	1,	1,	1,	1.00000,	0.0000
    165,	'Bus 165',	10.0000,	1,	1,	1,	1,	1.00000,	0.0000
    166,	'Bus 166',	10.0000,	1,	1,	1,	1,	1.00000,	0.0000
    167,	'Bus 167',	10.0000,	1,	1,	1,	1,	1.00000,	0.0000
    168,	'Bus 168',	10.0000,	1,	1,	1,	1,	1.00000,	0.0000
    169,	'Bus 169',	10.0000,	1,	1,	1,	1,	1.00000,	0.0000
    170,	'Bus 170',	10.0000,	1,	1,	1,	1,	1.00000,	0.0000
    171,	'Bus 171',	10.0000,	1,	1,	1,	1,	1.00000,	0.0000
    172,	'Bus 172',	10.0000,	1,	1,	1,	1,	1.00000,	0.0000
    173,	'Bus 173',	10.0000,	1,	1,	1,	1,	1.00000,	0.0000
    174,	'Bus 174',	10.0000,	1,	1,	1,	1,	1.00000,	0.0000
    175,	'Bus 175',	10.0000,	1,	1,	1,	1,	1.00000,	0.0000
    176,	'Bus 176',	10.0000,	1,	1,	1,	1,	1.00000,	0.0000
    177,	'Bus 177',	10.0000,	1,	1,	1,	1,	1.00000,	0.0000
    178,	'Bus 178',	10.0000,	1,	1,	1,	1,	1.00000,	0.0000
    179,	'Bus 179',	10.0000,	1,	1,	1,	1,	1.00000,	0.0000
    180,	'Bus 180',	10.0000,	1,	1,	1,	1,	1.00000,	0.0000
    181,	'Bus 181',	10.0000,	1,	1,	1,	1,	1.00000,	0.0000
    182,	'Bus 182',	10.0000,	1,	1,	1,	1,	1.00000,	0.0000
    183,	'Bus 183',	10.0000,	1,	1,	1,	1,	1.00000,	0.0000
    184,	'Bus 184',	10.0000,	1,	1,	1,	1,	1.00000,	0.0000
    185,	'Bus 185',	10.0000,	1,	1,	1,	1,	1.00000,	0.0000
    186,	'Bus 186',	10.0000,	1,	1,	1,	1,	1.00000,	0.0000
    187,	'Bus 187',	10.0000,	1,	1,	1,	1,	1.00000,	0.0000
    188,	'Bus 188',	10.0000,	1,	1,	1,	1,	1.00000,	0.0000
    189,	'Bus 189',	10.0000,	1,	1,	1,	1,	1.00000,	0.0000
    190,	'Bus 190',	10.0000,	2,	1,	1,	1,	1.00000,	0.0000
    191,	'Bus 191',	10.0000,	1,	1,	1,	1,	1.00000,	0.0000
    192,	'Bus 192',	10.0000,	1,	1,	1,	1,	1.00000,	0.0000
    193,	'Bus 193',	10.0000,	1,	1,	1,	1,	1.00000,	0.0000
    194,	'Bus 194',	10.0000,	1,	1,	1,	1,	1.00000,	0.0000
    195,	'Bus 195',	10.0000,	1,	1,	1,	1,	1.00000,	0.0000
    196,	'Bus 196',	10.0000,	1,	1,	1,	1,	1.00000,	0.0000
    197,	'Bus 197',	10.0000,	1,	1,	1,	1,	1.00000,	0.0000
    198,	'Bus 198',	10.0000,	1,	1,	1,	1,	1.00000,	0.0000
    199,	'Bus 199',	10.0000,	1,	1,	1,	1,	1.00000,	0.0000
    200,	'Bus 200',	10.0000,	1,	1,	1,	1,	1.00000,	0.0000
    201,	'Bus 201',	10.0000,	1,	1,	1,	1,	1.00000,	0.0000
    202,	'Bus 202',	10.0000,	1,	1,	1,	1,	1.00000,	0.0000
    203,	'Bus 203',	10.0000,	1,	1,	1,	1,	1.00000,	0.0000
    204,	'Bus 204',	10.0000,	1,	1,	1,	1,	1.00000,	0.0000
    205,	'Bus 205',	10.0000,	1,	1,	1,	1,	1.00000,	0.0000
    206,	'Bus 206',	10.0000,	1,	1,	1,	1,	1.00000,	0.0000
    207,	'Bus 207',	10.0000,	1,	1,	1,	1,	1.00000,	0.0000
    208,	'Bus 208',	10.0000,	1,	1,	1,	1,	1.00000,	0.0000
    209,	'Bus 209',	10.0000,	1,	1,	1,	1,	1.00000,	0.0000
    210,	'Bus 210',	10.0000,	1,	1,	1,	1,	1.00000,	0.0000
    211,	'Bus 211',	10.0000,	1,	1,	1,	1,	1.00000,	0.0000
    212,	'Bus 212',	10.0000,	1,	1,	1,	1,	1.00000,	0.0000
 0 /End of Bus data, Begin Load data
    143,	'1',	1,	1,	1,	0.002,	0.001,	0.000,	0.000,	0.000,	0.000,	1,	1
    145,	'2',	1,	1,	1,	0.001,	0.000,	0.000,	0.000,	0.000,	0.000,	1,	1
    146,	'3',	1,	1,	1,	0.005,	0.002,	0.000,	0.000,	0.000,	0.000,	1,	1
    147,	'4',	1,	1,	1,	-0.000,	-0.000,	0.000,	0.000,	0.000,	0.000,	1,	1
    149,	'5',	1,	1,	1,	0.016,	0.005,	0.000,	0.000,	0.000,	0.000,	1,	1
    151,	'6',	1,	1,	1,	0.002,	0.001,	0.000,	0.000,	0.000,	0.000,	1,	1
    152,	'7',	1,	1,	1,	0.001,	0.000,	0.000,	0.000,	0.000,	0.000,	1,	1
    153,	'8',	1,	1,	1,	0.001,	0.000,	0.000,	0.000,	0.000,	0.000,	1,	1
    154,	'9',	1,	1,	1,	0.001,	0.000,	0.000,	0.000,	0.000,	0.000,	1,	1
    155,	'10',	1,	1,	1,	0.000,	0.000,	0.000,	0.000,	0.000,	0.000,	1,	1
    158,	'11',	1,	1,	1,	0.000,	0.000,	0.000,	0.000,	0.000,	0.000,	1,	1
    159,	'12',	1,	1,	1,	0.000,	0.000,	0.000,	0.000,	0.000,	0.000,	1,	1
    160,	'13',	1,	1,	1,	0.007,	0.002,	0.000,	0.000,	0.000,	0.000,	1,	1
    161,	'14',	1,	1,	1,	0.000,	0.000,	0.000,	0.000,	0.000,	0.000,	1,	1
    162,	'15',	1,	1,	1,	0.002,	0.001,	0.000,	0.000,	0.000,	0.000,	1,	1
    163,	'16',	1,	1,	1,	0.000,	0.000,	0.000,	0.000,	0.000,	0.000,	1,	1
    165,	'17',	1,	1,	1,	0.002,	0.001,	0.000,	0.000,	0.000,	0.000,	1,	1
    166,	'18',	1,	1,	1,	0.000,	0.000,	0.000,	0.000,	0.000,	0.000,	1,	1
    167,	'19',	1,	1,	1,	0.000,	0.000,	0.000,	0.000,	0.000,	0.000,	1,	1
    168,	'20',	1,	1,	1,	0.000,	0.000,	0.000,	0.000,	0.000,	0.000,	1,	1
    169,	'21',	1,	1,	1,	0.000,	0.000,	0.000,	0.000,	0.000,	0.000,	1,	1
    170,	'22',	1,	1,	1,	0.000,	0.000,	0.000,	0.000,	0.000,	0.000,	1,	1
    171,	'23',	1,	1,	1,	0.000,	0.000,	0.000,	0.000,	0.000,	0.000,	1,	1
    172,	'24',	1,	1,	1,	0.001,	0.000,	0.000,	0.000,	0.000,	0.000,	1,	1
    173,	'25',	1,	1,	1,	0.001,	0.000,	0.000,	0.000,	0.000,	0.000,	1,	1
    174,	'26',	1,	1,	1,	0.003,	0.001,	0.000,	0.000,	0.000,	0.000,	1,	1
    175,	'27',	1,	1,	1,	0.000,	0.000,	0.000,	0.000,	0.000,	0.000,	1,	1
    176,	'28',	1,	1,	1,	0.004,	0.001,	0.000,	0.000,	0.000,	0.000,	1,	1
    178,	'29',	1,	1,	1,	0.003,	0.001,	0.000,	0.000,	0.000,	0.000,	1,	1
    186,	'30',	1,	1,	1,	0.001,	0.000,	0.000,	0.000,	0.000,	0.000,	1,	1
    187,	'31',	1,	1,	1,	0.011,	0.003,	0.000,	0.000,	0.000,	0.000,	1,	1
    188,	'32',	1,	1,	1,	0.004,	0.001,	0.000,	0.000,	0.000,	0.000,	1,	1
    189,	'33',	1,	1,	1,	0.001,	0.000,	0.000,	0.000,	0.000,	0.000,	1,	1
    191,	'34',	1,	1,	1,	0.002,	0.001,	0.000,	0.000,	0.000,	0.000,	1,	1
    193,	'35',	1,	1,	1,	0.001,	0.000,	0.000,	0.000,	0.000,	0.000,	1,	1
    195,	'36',	1,	1,	1,	0.002,	0.001,	0.000,	0.000,	0.000,	0.000,	1,	1
    197,	'37',	1,	1,	1,	0.001,	0.000,	0.000,	0.000,	0.000,	0.000,	1,	1
    198,	'38',	1,	1,	1,	0.003,	0.001,	0.000,	0.000,	0.000,	0.000,	1,	1
    200,	'39',	1,	1,	1,	0.002,	0.001,	0.000,	0.000,	0.000,	0.000,	1,	1
    204,	'40',	1,	1,	1,	0.001,	0.000,	0.000,	0.000,	0.000,	0.000,	1,	1
    205,	'41',	1,	1,	1,	0.001,	0.000,	0.000,	0.000,	0.000,	0.000,	1,	1
    206,	'42',	1,	1,	1,	0.001,	0.000,	0.000,	0.000,	0.000,	0.000,	1,	1
    207,	'43',	1,	1,	1,	0.001,	0.000,	0.000,	0.000,	0.000,	0.000,	1,	1
    208,	'44',	1,	1,	1,	0.004,	0.001,	0.000,	0.000,	0.000,	0.000,	1,	1
    209,	'45',	1,	1,	1,	0.004,	0.001,	0.000,	0.000,	0.000,	0.000,	1,	1
    210,	'46',	1,	1,	1,	0.003,	0.001,	0.000,	0.000,	0.000,	0.000,	1,	1
    211,	'47',	1,	1,	1,	0.000,	0.000,	0.000,	0.000,	0.000,	0.000,	1,	1
    212,	'48',	1,	1,	1,	0.015,	0.005,	0.000,	0.000,	0.000,	0.000,	1,	1
 0 /End of Load data, Begin Fixed shunt data
 0 /End of Fixed shunt data, Begin Generator data
     142,	'1',	30.000,	10.000,	99900.000,	-99900.000,	1.00000,	0,	100,	0.00000E+0,	2.50000E-1,	0.00000E+0,	0.00000E+0,	1.00000,	1,	100,	99900,	0.000,	1,	1.0000
     39,	'1',	0.010,	0.001,	1000.000,	-1000.000,	1.00000,	0,	100,	0.00000E+0,	2.50000E-1,	0.00000E+0,	0.00000E+0,	1.00000,	1,	100,	1000,	0.000,	1,	1.0000
     81,	'1',	0.010,	0.001,	1000.000,	-1000.000,	1.00000,	0,	100,	0.00000E+0,	2.50000E-1,	0.00000E+0,	0.00000E+0,	1.00000,	1,	100,	1000,	0.000,	1,	1.0000
     152,	'1',	0.010,	0.001,	1000.000,	-1000.000,	1.00000,	0,	100,	0.00000E+0,	2.50000E-1,	0.00000E+0,	0.00000E+0,	1.00000,	1,	100,	1000,	0.000,	1,	1.0000
     190,	'1',	0.010,	0.001,	1000.000,	-1000.000,	1.00000,	0,	100,	0.00000E+0,	2.50000E-1,	0.00000E+0,	0.00000E+0,	1.00000,	1,	100,	1000,	0.000,	1,	1.0000
 0 /End of Generator data, Begin Branch data
     1,	118,	1,	5.98000e-03,	3.60640e-03,	0.00000,	0.00,	0.00,	0.00,	0.00000,	0.00000,	0.00000,	0.00000,	1,	1,	1,	1,	1.0000
     2,	92,	1,	2.21500e-03,	1.55000e-03,	0.00000,	0.00,	0.00,	0.00,	0.00000,	0.00000,	0.00000,	0.00000,	1,	1,	1,	1,	1.0000
     3,	92,	1,	2.43650e-03,	1.70500e-03,	0.00000,	0.00,	0.00,	0.00,	0.00000,	0.00000,	0.00000,	0.00000,	1,	1,	1,	1,	1.0000
     4,	62,	1,	3.57500e-03,	2.15600e-03,	0.00000,	0.00,	0.00,	0.00,	0.00000,	0.00000,	0.00000,	0.00000,	1,	1,	1,	1,	1.0000
     5,	126,	1,	0.00000e+00,	1.00000e-02,	0.00000,	0.00,	0.00,	0.00,	0.00000,	0.00000,	0.00000,	0.00000,	1,	1,	1,	1,	1.0000
     6,	105,	1,	8.01000e-04,	3.60000e-04,	0.00000,	0.00,	0.00,	0.00,	0.00000,	0.00000,	0.00000,	0.00000,	1,	1,	1,	1,	1.0000
     7,	121,	1,	7.97400e-04,	5.58000e-04,	0.00000,	0.00,	0.00,	0.00,	0.00000,	0.00000,	0.00000,	0.00000,	1,	1,	1,	1,	1.0000
     8,	122,	1,	1.20150e-02,	5.40000e-03,	0.00000,	0.00,	0.00,	0.00,	0.00000,	0.00000,	0.00000,	0.00000,	1,	1,	1,	1,	1.0000
     8,	10,	2,	3.62500e-04,	2.70000e-04,	0.00000,	0.00,	0.00,	0.00,	0.00000,	0.00000,	0.00000,	0.00000,	1,	1,	1,	1,	1.0000
     9,	94,	1,	7.47600e-03,	3.36000e-03,	0.00000,	0.00,	0.00,	0.00,	0.00000,	0.00000,	0.00000,	0.00000,	1,	1,	1,	1,	1.0000
     9,	106,	2,	2.32290e-03,	1.04400e-03,	0.00000,	0.00,	0.00,	0.00,	0.00000,	0.00000,	0.00000,	0.00000,	1,	1,	1,	1,	1.0000
     9,	102,	3,	1.71520e-03,	6.92480e-04,	0.00000,	0.00,	0.00,	0.00,	0.00000,	0.00000,	0.00000,	0.00000,	1,	1,	1,	1,	1.0000
    10,	104,	1,	3.56708e-03,	1.44014e-03,	0.00000,	0.00,	0.00,	0.00,	0.00000,	0.00000,	0.00000,	0.00000,	1,	1,	1,	1,	1.0000
    10,	115,	2,	9.64800e-04,	3.89520e-04,	0.00000,	0.00,	0.00,	0.00,	0.00000,	0.00000,	0.00000,	0.00000,	1,	1,	1,	1,	1.0000
    11,	127,	1,	0.00000e+00,	1.00000e-02,	0.00000,	0.00,	0.00,	0.00,	0.00000,	0.00000,	0.00000,	0.00000,	1,	1,	1,	1,	1.0000
    12,	128,	1,	1.62000e-03,	2.19000e-03,	0.00000,	0.00,	0.00,	0.00,	0.00000,	0.00000,	0.00000,	0.00000,	1,	1,	1,	1,	1.0000
    13,	129,	1,	0.00000e+00,	1.00000e-02,	0.00000,	0.00,	0.00,	0.00,	0.00000,	0.00000,	0.00000,	0.00000,	1,	1,	1,	1,	1.0000
    14,	12,	1,	1.62000e-03,	2.19000e-03,	0.00000,	0.00,	0.00,	0.00,	0.00000,	0.00000,	0.00000,	0.00000,	1,	1,	1,	1,	1.0000
    15,	130,	1,	1.62000e-03,	2.19000e-03,	0.00000,	0.00,	0.00,	0.00,	0.00000,	0.00000,	0.00000,	0.00000,	1,	1,	1,	1,	1.0000
    16,	17,	1,	3.16020e-02,	9.52640e-03,	0.00000,	0.00,	0.00,	0.00,	0.00000,	0.00000,	0.00000,	0.00000,	1,	1,	1,	1,	1.0000
    17,	113,	1,	1.82160e-02,	5.49120e-03,	0.00000,	0.00,	0.00,	0.00,	0.00000,	0.00000,	0.00000,	0.00000,	1,	1,	1,	1,	1.0000
    18,	57,	1,	7.90000e-04,	1.90000e-03,	0.00000,	0.00,	0.00,	0.00,	0.00000,	0.00000,	0.00000,	0.00000,	1,	1,	1,	1,	1.0000
    19,	131,	1,	0.00000e+00,	1.00000e-02,	0.00000,	0.00,	0.00,	0.00,	0.00000,	0.00000,	0.00000,	0.00000,	1,	1,	1,	1,	1.0000
    20,	89,	1,	1.78500e-03,	8.46300e-04,	0.00000,	0.00,	0.00,	0.00,	0.00000,	0.00000,	0.00000,	0.00000,	1,	1,	1,	1,	1.0000
    21,	132,	1,	0.00000e+00,	1.00000e-02,	0.00000,	0.00,	0.00,	0.00,	0.00000,	0.00000,	0.00000,	0.00000,	1,	1,	1,	1,	1.0000
    22,	36,	1,	1.35000e-03,	1.82500e-03,	0.00000,	0.00,	0.00,	0.00,	0.00000,	0.00000,	0.00000,	0.00000,	1,	1,	1,	1,	1.0000
    23,	133,	1,	0.00000e+00,	1.00000e-02,	0.00000,	0.00,	0.00,	0.00,	0.00000,	0.00000,	0.00000,	0.00000,	1,	1,	1,	1,	1.0000
    24,	134,	1,	1.51200e-03,	2.07900e-03,	0.00000,	0.00,	0.00,	0.00,	0.00000,	0.00000,	0.00000,	0.00000,	1,	1,	1,	1,	1.0000
    25,	28,	1,	9.48000e-04,	2.28000e-03,	0.00000,	0.00,	0.00,	0.00,	0.00000,	0.00000,	0.00000,	0.00000,	1,	1,	1,	1,	1.0000
    26,	27,	1,	1.33500e-03,	6.00000e-04,	0.00000,	0.00,	0.00,	0.00,	0.00000,	0.00000,	0.00000,	0.00000,	1,	1,	1,	1,	1.0000
    27,	97,	1,	9.60000e-04,	8.24000e-04,	0.00000,	0.00,	0.00,	0.00,	0.00000,	0.00000,	0.00000,	0.00000,	1,	1,	1,	1,	1.0000
    28,	29,	1,	8.01000e-04,	3.60000e-04,	0.00000,	0.00,	0.00,	0.00,	0.00000,	0.00000,	0.00000,	0.00000,	1,	1,	1,	1,	1.0000
    29,	95,	1,	8.95000e-04,	5.50000e-04,	0.00000,	0.00,	0.00,	0.00,	0.00000,	0.00000,	0.00000,	0.00000,	1,	1,	1,	1,	1.0000
    25,	112,	2,	6.00000e-04,	5.15000e-04,	0.00000,	0.00,	0.00,	0.00,	0.00000,	0.00000,	0.00000,	0.00000,	1,	1,	1,	1,	1.0000
    30,	78,	1,	3.85050e-02,	1.82559e-02,	0.00000,	0.00,	0.00,	0.00,	0.00000,	0.00000,	0.00000,	0.00000,	1,	1,	1,	1,	1.0000
    31,	32,	1,	1.21825e-02,	8.52500e-03,	0.00000,	0.00,	0.00,	0.00,	0.00000,	0.00000,	0.00000,	0.00000,	1,	1,	1,	1,	1.0000
    32,	99,	1,	2.22000e-03,	1.90550e-03,	0.00000,	0.00,	0.00,	0.00,	0.00000,	0.00000,	0.00000,	0.00000,	1,	1,	1,	1,	1.0000
    31,	111,	2,	1.97580e-03,	8.88000e-04,	0.00000,	0.00,	0.00,	0.00,	0.00000,	0.00000,	0.00000,	0.00000,	1,	1,	1,	1,	1.0000
    33,	135,	1,	4.20000e-08,	2.80000e-08,	0.00000,	0.00,	0.00,	0.00,	0.00000,	0.00000,	0.00000,	0.00000,	1,	1,	1,	1,	1.0000
    34,	136,	1,	0.00000e+00,	1.00000e-02,	0.00000,	0.00,	0.00,	0.00,	0.00000,	0.00000,	0.00000,	0.00000,	1,	1,	1,	1,	1.0000
    35,	124,	1,	1.40000e-04,	1.92500e-04,	0.00000,	0.00,	0.00,	0.00,	0.00000,	0.00000,	0.00000,	0.00000,	1,	1,	1,	1,	1.0000
    36,	119,	1,	1.10750e-03,	7.75000e-04,	0.00000,	0.00,	0.00,	0.00,	0.00000,	0.00000,	0.00000,	0.00000,	1,	1,	1,	1,	1.0000
    37,	41,	1,	1.17300e-02,	3.53600e-03,	0.00000,	0.00,	0.00,	0.00,	0.00000,	0.00000,	0.00000,	0.00000,	1,	1,	1,	1,	1.0000
    38,	37,	1,	6.64500e-04,	4.65000e-04,	0.00000,	0.00,	0.00,	0.00,	0.00000,	0.00000,	0.00000,	0.00000,	1,	1,	1,	1,	1.0000
    39,	137,	1,	0.00000e+00,	1.00000e-02,	0.00000,	0.00,	0.00,	0.00,	0.00000,	0.00000,	0.00000,	0.00000,	1,	1,	1,	1,	1.0000
    40,	138,	1,	0.00000e+00,	1.00000e-02,	0.00000,	0.00,	0.00,	0.00,	0.00000,	0.00000,	0.00000,	0.00000,	1,	1,	1,	1,	1.0000
    41,	139,	1,	1.17300e-02,	3.53600e-03,	0.00000,	0.00,	0.00,	0.00,	0.00000,	0.00000,	0.00000,	0.00000,	1,	1,	1,	1,	1.0000
    42,	55,	1,	4.64080e-03,	3.59000e-03,	0.00000,	0.00,	0.00,	0.00,	0.00000,	0.00000,	0.00000,	0.00000,	1,	1,	1,	1,	1.0000
    43,	81,	1,	2.35750e-03,	1.11500e-03,	0.00000,	0.00,	0.00,	0.00,	0.00000,	0.00000,	0.00000,	0.00000,	1,	1,	1,	1,	1.0000
    44,	16,	1,	9.39600e-03,	1.27020e-02,	0.00000,	0.00,	0.00,	0.00,	0.00000,	0.00000,	0.00000,	0.00000,	1,	1,	1,	1,	1.0000
     9,	10,	4,	4.29280e-03,	2.27648e-03,	0.00000,	0.00,	0.00,	0.00,	0.00000,	0.00000,	0.00000,	0.00000,	1,	1,	1,	1,	1.0000
    45,	58,	1,	3.21290e-03,	2.20100e-03,	0.00000,	0.00,	0.00,	0.00,	0.00000,	0.00000,	0.00000,	0.00000,	1,	1,	1,	1,	1.0000
    46,	4,	1,	5.40615e-03,	3.89100e-03,	0.00000,	0.00,	0.00,	0.00,	0.00000,	0.00000,	0.00000,	0.00000,	1,	1,	1,	1,	1.0000
    47,	91,	1,	1.59900e-03,	8.85000e-04,	0.00000,	0.00,	0.00,	0.00,	0.00000,	0.00000,	0.00000,	0.00000,	1,	1,	1,	1,	1.0000
    48,	76,	1,	1.14510e-03,	6.81000e-04,	0.00000,	0.00,	0.00,	0.00,	0.00000,	0.00000,	0.00000,	0.00000,	1,	1,	1,	1,	1.0000
     5,	6,	2,	0.00000e+00,	1.00000e-02,	0.00000,	0.00,	0.00,	0.00,	0.00000,	0.00000,	0.00000,	0.00000,	1,	1,	1,	1,	1.0000
    49,	77,	1,	4.35100e-03,	2.51000e-03,	0.00000,	0.00,	0.00,	0.00,	0.00000,	0.00000,	0.00000,	0.00000,	1,	1,	1,	1,	1.0000
    50,	130,	1,	1.56900e-03,	1.13600e-03,	0.00000,	0.00,	0.00,	0.00,	0.00000,	0.00000,	0.00000,	0.00000,	1,	1,	1,	1,	1.0000
    36,	23,	2,	1.38000e-03,	9.30000e-04,	0.00000,	0.00,	0.00,	0.00,	0.00000,	0.00000,	0.00000,	0.00000,	1,	1,	1,	1,	1.0000
    51,	134,	1,	5.46600e-08,	3.64400e-08,	0.00000,	0.00,	0.00,	0.00,	0.00000,	0.00000,	0.00000,	0.00000,	1,	1,	1,	1,	1.0000
    26,	28,	2,	5.88040e-03,	4.74400e-03,	0.00000,	0.00,	0.00,	0.00,	0.00000,	0.00000,	0.00000,	0.00000,	1,	1,	1,	1,	1.0000
    26,	120,	3,	3.22390e-03,	5.40400e-03,	0.00000,	0.00,	0.00,	0.00,	0.00000,	0.00000,	0.00000,	0.00000,	1,	1,	1,	1,	1.0000
    52,	128,	1,	3.24000e-03,	4.38000e-03,	0.00000,	0.00,	0.00,	0.00,	0.00000,	0.00000,	0.00000,	0.00000,	1,	1,	1,	1,	1.0000
    53,	27,	1,	2.83400e-03,	1.79000e-03,	0.00000,	0.00,	0.00,	0.00,	0.00000,	0.00000,	0.00000,	0.00000,	1,	1,	1,	1,	1.0000
    54,	101,	1,	3.05850e-03,	2.04000e-03,	0.00000,	0.00,	0.00,	0.00,	0.00000,	0.00000,	0.00000,	0.00000,	1,	1,	1,	1,	1.0000
    13,	128,	2,	2.90200e-03,	3.53700e-03,	0.00000,	0.00,	0.00,	0.00,	0.00000,	0.00000,	0.00000,	0.00000,	1,	1,	1,	1,	1.0000
    33,	75,	2,	2.46400e-03,	3.38800e-03,	0.00000,	0.00,	0.00,	0.00,	0.00000,	0.00000,	0.00000,	0.00000,	1,	1,	1,	1,	1.0000
    55,	72,	1,	1.89600e-03,	4.56000e-03,	0.00000,	0.00,	0.00,	0.00,	0.00000,	0.00000,	0.00000,	0.00000,	1,	1,	1,	1,	1.0000
    33,	24,	3,	4.76000e-03,	6.75300e-03,	0.00000,	0.00,	0.00,	0.00,	0.00000,	0.00000,	0.00000,	0.00000,	1,	1,	1,	1,	1.0000
    25,	55,	3,	1.89600e-03,	4.56000e-03,	0.00000,	0.00,	0.00,	0.00,	0.00000,	0.00000,	0.00000,	0.00000,	1,	1,	1,	1,	1.0000
    56,	83,	1,	9.63700e-03,	7.41400e-03,	0.00000,	0.00,	0.00,	0.00,	0.00000,	0.00000,	0.00000,	0.00000,	1,	1,	1,	1,	1.0000
    34,	33,	2,	2.99000e-03,	2.01500e-03,	0.00000,	0.00,	0.00,	0.00,	0.00000,	0.00000,	0.00000,	0.00000,	1,	1,	1,	1,	1.0000
    57,	19,	1,	9.66000e-03,	6.51000e-03,	0.00000,	0.00,	0.00,	0.00,	0.00000,	0.00000,	0.00000,	0.00000,	1,	1,	1,	1,	1.0000
    58,	81,	1,	1.70000e-03,	6.90000e-04,	0.00000,	0.00,	0.00,	0.00,	0.00000,	0.00000,	0.00000,	0.00000,	1,	1,	1,	1,	1.0000
    59,	130,	1,	9.72000e-03,	1.31400e-02,	0.00000,	0.00,	0.00,	0.00,	0.00000,	0.00000,	0.00000,	0.00000,	1,	1,	1,	1,	1.0000
    60,	15,	1,	1.65750e-02,	7.85850e-03,	0.00000,	0.00,	0.00,	0.00,	0.00000,	0.00000,	0.00000,	0.00000,	1,	1,	1,	1,	1.0000
    61,	103,	1,	4.78780e-03,	2.58872e-03,	0.00000,	0.00,	0.00,	0.00,	0.00000,	0.00000,	0.00000,	0.00000,	1,	1,	1,	1,	1.0000
    20,	36,	2,	4.05000e-03,	5.47500e-03,	0.00000,	0.00,	0.00,	0.00,	0.00000,	0.00000,	0.00000,	0.00000,	1,	1,	1,	1,	1.0000
    62,	8,	1,	7.55050e-03,	4.49200e-03,	0.00000,	0.00,	0.00,	0.00,	0.00000,	0.00000,	0.00000,	0.00000,	1,	1,	1,	1,	1.0000
    44,	116,	2,	2.22750e-02,	3.01125e-02,	0.00000,	0.00,	0.00,	0.00,	0.00000,	0.00000,	0.00000,	0.00000,	1,	1,	1,	1,	1.0000
    63,	120,	1,	2.84400e-03,	6.84000e-03,	0.00000,	0.00,	0.00,	0.00,	0.00000,	0.00000,	0.00000,	0.00000,	1,	1,	1,	1,	1.0000
    64,	114,	1,	1.78498e-02,	8.46292e-03,	0.00000,	0.00,	0.00,	0.00,	0.00000,	0.00000,	0.00000,	0.00000,	1,	1,	1,	1,	1.0000
    65,	69,	1,	1.66600e-02,	7.89880e-03,	0.00000,	0.00,	0.00,	0.00,	0.00000,	0.00000,	0.00000,	0.00000,	1,	1,	1,	1,	1.0000
    31,	42,	3,	2.43650e-02,	1.70500e-02,	0.00000,	0.00,	0.00,	0.00,	0.00000,	0.00000,	0.00000,	0.00000,	1,	1,	1,	1,	1.0000
    66,	74,	1,	1.20996e-02,	6.93600e-03,	0.00000,	0.00,	0.00,	0.00,	0.00000,	0.00000,	0.00000,	0.00000,	1,	1,	1,	1,	1.0000
    30,	42,	2,	7.70100e-02,	3.65118e-02,	0.00000,	0.00,	0.00,	0.00,	0.00000,	0.00000,	0.00000,	0.00000,	1,	1,	1,	1,	1.0000
    67,	140,	1,	7.97400e-03,	5.58000e-03,	0.00000,	0.00,	0.00,	0.00,	0.00000,	0.00000,	0.00000,	0.00000,	1,	1,	1,	1,	1.0000
    68,	17,	1,	2.29080e-02,	6.90560e-03,	0.00000,	0.00,	0.00,	0.00,	0.00000,	0.00000,	0.00000,	0.00000,	1,	1,	1,	1,	1.0000
    69,	37,	1,	5.06000e-03,	3.41000e-03,	0.00000,	0.00,	0.00,	0.00,	0.00000,	0.00000,	0.00000,	0.00000,	1,	1,	1,	1,	1.0000
    70,	140,	1,	1.44442e-02,	9.97400e-03,	0.00000,	0.00,	0.00,	0.00,	0.00000,	0.00000,	0.00000,	0.00000,	1,	1,	1,	1,	1.0000
    71,	44,	1,	5.76840e-02,	1.73888e-02,	0.00000,	0.00,	0.00,	0.00,	0.00000,	0.00000,	0.00000,	0.00000,	1,	1,	1,	1,	1.0000
    72,	93,	1,	1.05180e-02,	7.23320e-03,	0.00000,	0.00,	0.00,	0.00,	0.00000,	0.00000,	0.00000,	0.00000,	1,	1,	1,	1,	1.0000
    67,	76,	2,	1.10160e-03,	4.15800e-03,	0.00000,	0.00,	0.00,	0.00,	0.00000,	0.00000,	0.00000,	0.00000,	1,	1,	1,	1,	1.0000
    73,	92,	1,	7.71000e-03,	5.29500e-03,	0.00000,	0.00,	0.00,	0.00,	0.00000,	0.00000,	0.00000,	0.00000,	1,	1,	1,	1,	1.0000
     8,	121,	3,	8.97740e-03,	4.67800e-03,	0.00000,	0.00,	0.00,	0.00,	0.00000,	0.00000,	0.00000,	0.00000,	1,	1,	1,	1,	1.0000
    74,	2,	1,	3.21300e-03,	1.21275e-02,	0.00000,	0.00,	0.00,	0.00,	0.00000,	0.00000,	0.00000,	0.00000,	1,	1,	1,	1,	1.0000
    54,	140,	2,	1.32900e-02,	9.30000e-03,	0.00000,	0.00,	0.00,	0.00,	0.00000,	0.00000,	0.00000,	0.00000,	1,	1,	1,	1,	1.0000
    75,	110,	1,	2.19000e-03,	1.35600e-03,	0.00000,	0.00,	0.00,	0.00,	0.00000,	0.00000,	0.00000,	0.00000,	1,	1,	1,	1,	1.0000
    76,	1,	1,	3.10080e-03,	1.17040e-02,	0.00000,	0.00,	0.00,	0.00,	0.00000,	0.00000,	0.00000,	0.00000,	1,	1,	1,	1,	1.0000
    77,	67,	1,	4.36560e-03,	1.64780e-02,	0.00000,	0.00,	0.00,	0.00,	0.00000,	0.00000,	0.00000,	0.00000,	1,	1,	1,	1,	1.0000
    78,	114,	1,	1.15515e-01,	5.47677e-02,	0.00000,	0.00,	0.00,	0.00,	0.00000,	0.00000,	0.00000,	0.00000,	1,	1,	1,	1,	1.0000
    79,	117,	1,	1.84450e-02,	8.74510e-03,	0.00000,	0.00,	0.00,	0.00,	0.00000,	0.00000,	0.00000,	0.00000,	1,	1,	1,	1,	1.0000
    80,	30,	1,	1.75170e-02,	1.22960e-02,	0.00000,	0.00,	0.00,	0.00,	0.00000,	0.00000,	0.00000,	0.00000,	1,	1,	1,	1,	1.0000
    81,	84,	1,	1.61502e-02,	7.59912e-03,	0.00000,	0.00,	0.00,	0.00,	0.00000,	0.00000,	0.00000,	0.00000,	1,	1,	1,	1,	1.0000
    82,	77,	1,	5.68940e-03,	2.06816e-02,	0.00000,	0.00,	0.00,	0.00,	0.00000,	0.00000,	0.00000,	0.00000,	1,	1,	1,	1,	1.0000
    83,	35,	1,	3.38800e-03,	4.65850e-03,	0.00000,	0.00,	0.00,	0.00,	0.00000,	0.00000,	0.00000,	0.00000,	1,	1,	1,	1,	1.0000
    22,	98,	2,	2.08770e-03,	1.51800e-03,	0.00000,	0.00,	0.00,	0.00,	0.00000,	0.00000,	0.00000,	0.00000,	1,	1,	1,	1,	1.0000
    32,	96,	2,	2.47250e-02,	1.73590e-02,	0.00000,	0.00,	0.00,	0.00,	0.00000,	0.00000,	0.00000,	0.00000,	1,	1,	1,	1,	1.0000
    35,	134,	2,	5.43200e-03,	7.46900e-03,	0.00000,	0.00,	0.00,	0.00,	0.00000,	0.00000,	0.00000,	0.00000,	1,	1,	1,	1,	1.0000